Circuit: * G:\Engineering work\blackmagic\L1\sims\Pyro\Draft1.asc

Limiting rise time of source v2 to 0.01
Limiting fall time of source v2 to 0.01
Direct Newton iteration for .op point succeeded.

Date: Sat Jul 30 17:28:33 2022
Total elapsed time: 0.030 seconds.

tnom = 27
temp = 27
method = modified trap
totiter = 2481
traniter = 2476
tranpoints = 784
accept = 617
rejected = 167
matrix size = 9
fillins = 0
solver = Normal
Matrix Compiler1:      22 opcodes  0.1/[0.0]/0.1
Matrix Compiler2: off  [0.0]/0.1/0.1

